Version 4
SHEET 1 880 680
WIRE 176 -32 -288 -32
WIRE 336 -32 176 -32
WIRE 336 48 336 -32
WIRE 336 48 224 48
WIRE -288 80 -288 -32
WIRE 336 96 336 48
WIRE 224 112 224 48
WIRE -288 192 -288 160
WIRE 176 224 176 -32
WIRE 224 224 224 176
WIRE 336 224 336 176
WIRE 336 224 224 224
WIRE -32 272 -80 272
WIRE 112 272 48 272
WIRE 336 288 336 224
WIRE -80 336 -80 272
WIRE -80 336 -224 336
WIRE 176 368 176 320
WIRE 288 368 176 368
WIRE -224 384 -224 336
WIRE -80 416 -80 336
WIRE -32 416 -80 416
WIRE 112 416 48 416
WIRE 336 432 336 384
WIRE -224 496 -224 464
WIRE 176 496 176 464
FLAG 336 432 0
FLAG -288 192 0
FLAG -224 496 0
FLAG 176 496 0
SYMBOL nmos 288 288 R0
SYMATTR InstName M1
SYMATTR Value Si7336ADP
SYMBOL diode 240 176 R180
WINDOW 0 24 64 Left 2
WINDOW 3 24 0 Left 2
SYMATTR InstName D1
SYMBOL voltage -224 368 R0
WINDOW 123 0 0 Left 0
WINDOW 39 0 0 Left 0
SYMATTR InstName V1
SYMATTR Value PULSE(0 12 0 1n 1n 125u 250u)
SYMBOL voltage -288 64 R0
WINDOW 123 0 0 Left 0
WINDOW 39 0 0 Left 0
SYMATTR InstName V2
SYMATTR Value 12
SYMBOL ind 320 80 R0
SYMATTR InstName L1
SYMATTR Value 7.4m
SYMATTR SpiceLine Rser=6
SYMBOL npn 112 368 R0
SYMATTR InstName Q1
SYMBOL pnp 112 320 M180
SYMATTR InstName Q2
SYMBOL res 64 256 R90
WINDOW 0 0 56 VBottom 2
WINDOW 3 32 56 VTop 2
SYMATTR InstName R1
SYMATTR Value 1k
SYMBOL res 64 400 R90
WINDOW 0 0 56 VBottom 2
WINDOW 3 32 56 VTop 2
SYMATTR InstName R2
SYMATTR Value 1k
TEXT -448 504 Left 2 !.tran 0 .01 .009
