Version 4
SHEET 1 1096 680
WIRE 336 -32 176 -32
WIRE 336 48 336 -32
WIRE 336 48 224 48
WIRE 736 64 608 64
WIRE 1040 64 832 64
WIRE 336 96 336 48
WIRE 224 112 224 48
WIRE 608 160 608 64
WIRE 784 160 784 128
WIRE 784 160 688 160
WIRE 1040 192 1040 64
WIRE -1024 224 -1024 176
WIRE -880 224 -880 176
WIRE 176 224 176 -32
WIRE 224 224 224 176
WIRE 336 224 336 176
WIRE 336 224 224 224
WIRE -32 272 -80 272
WIRE 112 272 48 272
WIRE 336 288 336 224
WIRE 784 288 784 240
WIRE -1024 336 -1024 304
WIRE -880 336 -880 304
WIRE -80 336 -80 272
WIRE -80 336 -224 336
WIRE 720 336 656 336
WIRE 176 368 176 320
WIRE 288 368 176 368
WIRE -80 416 -80 336
WIRE -32 416 -80 416
WIRE 112 416 48 416
WIRE 336 432 336 384
WIRE 784 432 784 384
WIRE 1040 432 1040 272
WIRE 176 496 176 464
FLAG 336 432 0
FLAG -1024 336 0
FLAG -880 336 0
FLAG 176 496 0
FLAG -1024 176 Vcc
FLAG 176 -32 Vcc
FLAG -880 176 Vsig
FLAG -224 336 Vsig
FLAG 784 432 0
FLAG 1040 432 0
FLAG 656 336 Vsig
FLAG 608 64 Vcc
SYMBOL nmos 288 288 R0
SYMATTR InstName M1
SYMATTR Value Si7336ADP
SYMBOL diode 240 176 R180
WINDOW 0 24 64 Left 2
WINDOW 3 24 0 Left 2
SYMATTR InstName D1
SYMBOL voltage -880 208 R0
WINDOW 123 0 0 Left 0
WINDOW 39 0 0 Left 0
SYMATTR InstName V1
SYMATTR Value PULSE(0 5 0 1n 1n 125u 250u)
SYMBOL voltage -1024 208 R0
WINDOW 123 0 0 Left 0
WINDOW 39 0 0 Left 0
SYMATTR InstName V2
SYMATTR Value 12
SYMBOL ind 320 80 R0
SYMATTR InstName L1
SYMATTR Value 7.4m
SYMATTR SpiceLine Rser=6
SYMBOL npn 112 368 R0
SYMATTR InstName Q1
SYMBOL pnp 112 320 M180
SYMATTR InstName Q2
SYMBOL res 64 256 R90
WINDOW 0 0 56 VBottom 2
WINDOW 3 32 56 VTop 2
SYMATTR InstName R1
SYMATTR Value 1k
SYMBOL res 64 400 R90
WINDOW 0 0 56 VBottom 2
WINDOW 3 32 56 VTop 2
SYMATTR InstName R2
SYMATTR Value 1k
SYMBOL npn 720 288 R0
SYMATTR InstName Q3
SYMATTR Value 2SD2673
SYMBOL pnp 832 128 M270
SYMATTR InstName Q4
SYMATTR Value 2SB1708
SYMBOL res 768 144 R0
SYMATTR InstName R3
SYMATTR Value 1k
SYMBOL res 704 144 R90
WINDOW 0 0 56 VBottom 2
WINDOW 3 32 56 VTop 2
SYMATTR InstName R4
SYMATTR Value {X}
SYMBOL res 1024 176 R0
SYMATTR InstName R5
SYMATTR Value 10
TEXT -1056 440 Left 2 !.tran 0 .01 .009
TEXT -1048 488 Left 2 !.step param X 1k 10k 1k
