Version 4
SHEET 1 1432 960
WIRE 496 -1344 464 -1344
WIRE 608 -1344 576 -1344
WIRE 672 -1344 608 -1344
WIRE 864 -1344 752 -1344
WIRE 464 -1280 464 -1344
WIRE -208 -1264 -208 -1280
WIRE -208 -1264 -336 -1264
WIRE -336 -1232 -336 -1264
WIRE -208 -1232 -208 -1264
WIRE -96 -1184 -144 -1184
WIRE 752 -1152 752 -1200
WIRE 144 -1136 144 -1152
WIRE 864 -1136 864 -1344
WIRE 864 -1136 784 -1136
WIRE 992 -1136 864 -1136
WIRE 1136 -1136 1072 -1136
WIRE 256 -1120 176 -1120
WIRE 464 -1120 464 -1216
WIRE 464 -1120 256 -1120
WIRE 496 -1120 464 -1120
WIRE 608 -1120 608 -1344
WIRE 608 -1120 576 -1120
WIRE 720 -1120 608 -1120
WIRE -336 -1104 -336 -1168
WIRE -336 -1104 -464 -1104
WIRE -208 -1104 -208 -1136
WIRE -208 -1104 -336 -1104
WIRE -96 -1104 -96 -1184
WIRE -64 -1104 -96 -1104
WIRE 112 -1104 16 -1104
WIRE 800 -1104 784 -1104
WIRE 288 -1088 176 -1088
WIRE -208 -1072 -208 -1104
WIRE -336 -1056 -336 -1104
WIRE 752 -1056 752 -1088
WIRE 144 -1040 144 -1072
WIRE 800 -1040 800 -1104
WIRE 832 -1040 800 -1040
WIRE 960 -1040 912 -1040
WIRE -96 -1024 -96 -1104
WIRE -96 -1024 -144 -1024
WIRE -1088 -1008 -1088 -1040
WIRE -944 -1008 -944 -1040
WIRE -800 -1008 -800 -1040
WIRE 384 -992 384 -1024
WIRE 800 -992 800 -1040
WIRE -336 -944 -336 -992
WIRE -208 -944 -208 -976
WIRE -208 -944 -336 -944
WIRE -192 -944 -208 -944
WIRE -464 -928 -464 -1104
WIRE -464 -928 -592 -928
WIRE 288 -880 288 -1088
WIRE 384 -880 384 -912
WIRE 384 -880 288 -880
WIRE -592 -864 -592 -928
WIRE -464 -864 -464 -928
WIRE -320 -864 -464 -864
WIRE 256 -864 256 -1120
WIRE 256 -864 -240 -864
WIRE 384 -848 384 -880
WIRE -1088 -816 -1088 -928
WIRE -944 -816 -944 -928
WIRE -800 -816 -800 -928
WIRE 1136 -800 1136 -1136
WIRE 1136 -800 688 -800
WIRE 384 -736 384 -768
WIRE -592 -720 -592 -784
WIRE 528 -720 464 -720
WIRE 688 -720 688 -800
WIRE 688 -720 608 -720
WIRE 768 -720 688 -720
WIRE 960 -720 848 -720
WIRE -208 -672 -208 -688
WIRE -208 -672 -336 -672
WIRE -1168 -640 -1168 -688
WIRE -1088 -640 -1088 -672
WIRE -1088 -640 -1168 -640
WIRE -336 -640 -336 -672
WIRE -208 -640 -208 -672
WIRE 464 -640 464 -720
WIRE -96 -592 -144 -592
WIRE 800 -560 800 -576
WIRE -1088 -544 -1088 -640
WIRE -944 -544 -944 -672
WIRE -800 -544 -800 -672
WIRE -592 -544 -592 -640
WIRE -464 -544 -592 -544
WIRE 144 -544 144 -560
WIRE 960 -544 960 -720
WIRE 960 -544 832 -544
WIRE 1008 -544 960 -544
WIRE 1152 -544 1088 -544
WIRE 1168 -544 1152 -544
WIRE 256 -528 176 -528
WIRE 464 -528 464 -576
WIRE 464 -528 256 -528
WIRE 528 -528 464 -528
WIRE 688 -528 688 -720
WIRE 688 -528 608 -528
WIRE 768 -528 688 -528
WIRE -464 -512 -464 -544
WIRE -336 -512 -336 -576
WIRE -336 -512 -464 -512
WIRE -208 -512 -208 -544
WIRE -208 -512 -336 -512
WIRE -96 -512 -96 -592
WIRE -64 -512 -96 -512
WIRE 112 -512 16 -512
WIRE 880 -512 832 -512
WIRE 288 -496 288 -880
WIRE 288 -496 176 -496
WIRE -208 -480 -208 -512
WIRE -336 -464 -336 -512
WIRE 800 -464 800 -496
WIRE 144 -448 144 -480
WIRE 960 -448 960 -464
WIRE -96 -432 -96 -512
WIRE -96 -432 -144 -432
WIRE 256 -432 256 -528
WIRE -1088 -368 -1088 -464
WIRE -944 -368 -944 -464
WIRE -800 -368 -800 -464
WIRE -336 -352 -336 -400
WIRE -208 -352 -208 -384
WIRE -208 -352 -336 -352
WIRE -192 -352 -208 -352
WIRE 880 -352 880 -512
WIRE 960 -352 960 -368
WIRE 960 -352 880 -352
WIRE -464 -320 -464 -512
WIRE 256 -320 256 -352
WIRE 256 -320 -464 -320
WIRE 960 -320 960 -352
WIRE 960 -224 960 -240
FLAG -944 -368 0
FLAG -1088 -672 +12V
FLAG -1088 -368 0
FLAG -944 -672 +5V
FLAG -1088 -816 0
FLAG -1088 -1040 Vsig_z
FLAG -944 -816 0
FLAG -800 -816 0
FLAG -944 -1040 Vsig_x
FLAG -800 -1040 Vsig_y
FLAG -208 -1280 DR
FLAG -208 -688 DR
FLAG 144 -448 0
FLAG 144 -560 +12V
FLAG 144 -1040 0
FLAG 144 -1152 +12V
FLAG -192 -944 RL
FLAG -192 -352 RL
FLAG 384 -1024 +5V
FLAG 384 -736 0
FLAG 800 -464 0
FLAG 800 -576 +12V
FLAG 1152 -544 Vsig_x
FLAG 960 -464 +5V
FLAG 960 -224 0
FLAG -800 -368 0
FLAG -800 -672 RL
FLAG -1168 -688 DR
FLAG 800 -912 0
FLAG 752 -1056 0
FLAG 752 -1200 +12V
FLAG 960 -1040 +5V
SYMBOL voltage -944 -560 R0
WINDOW 123 0 0 Left 0
WINDOW 39 0 0 Left 0
SYMATTR InstName +5V
SYMATTR Value 5
SYMBOL voltage -1088 -560 R0
WINDOW 123 0 0 Left 0
WINDOW 39 0 0 Left 0
SYMATTR InstName +12V
SYMATTR Value 12
SYMBOL voltage -1088 -1024 R0
WINDOW 123 0 0 Left 0
WINDOW 39 0 0 Left 0
SYMATTR InstName Vsig_z
SYMATTR Value 2.72
SYMBOL voltage -944 -1024 R0
WINDOW 123 24 44 Left 2
WINDOW 39 0 0 Left 0
SYMATTR Value2 AC 0.1
SYMATTR InstName Vsig_x
SYMATTR Value 2.5
SYMBOL voltage -800 -1024 R0
WINDOW 123 0 0 Left 0
WINDOW 39 0 0 Left 0
SYMATTR InstName Vsig_y
SYMATTR Value 2.72
SYMBOL pnp -144 -976 R180
SYMATTR InstName Q1
SYMATTR Value 2SB1708
SYMBOL npn -144 -1232 M0
SYMATTR InstName Q2
SYMATTR Value 2SD2673
SYMBOL diode -320 -1168 R180
WINDOW 0 24 64 Left 2
WINDOW 3 24 0 Left 2
SYMATTR InstName D2
SYMATTR Value 1N4148
SYMBOL diode -320 -992 R180
WINDOW 0 24 64 Left 2
WINDOW 3 24 0 Left 2
SYMATTR InstName D3
SYMATTR Value 1N4148
SYMBOL diode -320 -576 R180
WINDOW 0 24 64 Left 2
WINDOW 3 24 0 Left 2
SYMATTR InstName D4
SYMATTR Value 1N4148
SYMBOL diode -320 -400 R180
WINDOW 0 24 64 Left 2
WINDOW 3 24 0 Left 2
SYMATTR InstName D5
SYMATTR Value 1N4148
SYMBOL res -224 -880 R90
WINDOW 0 0 56 VBottom 2
WINDOW 3 32 56 VTop 2
SYMATTR InstName R6
SYMATTR Value 10k
SYMBOL ind -608 -880 R0
SYMATTR InstName L1
SYMATTR Value 7.4m
SYMATTR SpiceLine Rser=6
SYMBOL res 32 -1120 R90
WINDOW 0 0 56 VBottom 2
WINDOW 3 32 56 VTop 2
SYMATTR InstName R8
SYMATTR Value 51
SYMBOL res 32 -528 R90
WINDOW 0 0 56 VBottom 2
WINDOW 3 32 56 VTop 2
SYMATTR InstName R9
SYMATTR Value 51
SYMBOL res 240 -448 R0
SYMATTR InstName R10
SYMATTR Value 10k
SYMBOL res 368 -1008 R0
SYMATTR InstName R11
SYMATTR Value 10k
SYMBOL res 368 -864 R0
SYMATTR InstName R12
SYMATTR Value 10k
SYMBOL cap 448 -640 R0
SYMATTR InstName C1
SYMATTR Value 560n
SYMBOL res 624 -544 R90
WINDOW 0 0 56 VBottom 2
WINDOW 3 32 56 VTop 2
SYMATTR InstName R13
SYMATTR Value 3.3k
SYMBOL res 624 -736 R90
WINDOW 0 0 56 VBottom 2
WINDOW 3 32 56 VTop 2
SYMATTR InstName R14
SYMATTR Value 1k
SYMBOL res 864 -736 R90
WINDOW 0 0 56 VBottom 2
WINDOW 3 32 56 VTop 2
SYMATTR InstName R15
SYMATTR Value 75k
SYMBOL res 1104 -560 R90
WINDOW 0 0 56 VBottom 2
WINDOW 3 32 56 VTop 2
SYMATTR InstName R16
SYMATTR Value 10k
SYMBOL res 944 -464 R0
SYMATTR InstName R17
SYMATTR Value 5k
SYMBOL res 944 -336 R0
SYMATTR InstName R18
SYMATTR Value 5k
SYMBOL res -816 -560 R0
SYMATTR InstName R19
SYMATTR Value 1
SYMBOL pnp -144 -384 R180
SYMATTR InstName Q3
SYMATTR Value 2SB1708
SYMBOL npn -144 -640 M0
SYMATTR InstName Q4
SYMATTR Value 2SD2673
SYMBOL OpAmps\\UniversalOpAmp2 144 -512 M0
SYMATTR InstName U6
SYMBOL OpAmps\\UniversalOpAmp2 144 -1104 M0
SYMATTR InstName U3
SYMBOL OpAmps\\opamp2 496 -272 R0
SYMATTR InstName U4
SYMATTR Value lm324
SYMBOL OpAmps\\UniversalOpAmp2 800 -528 M0
SYMATTR InstName U1
SYMBOL OpAmps\\UniversalOpAmp2 752 -1120 M0
SYMATTR InstName U2
SYMBOL res 928 -1056 R90
WINDOW 0 0 56 VBottom 2
WINDOW 3 32 56 VTop 2
SYMATTR InstName R1
SYMATTR Value 5k
SYMBOL res 816 -896 R180
WINDOW 0 36 76 Left 2
WINDOW 3 36 40 Left 2
SYMATTR InstName R2
SYMATTR Value 5k
SYMBOL res 768 -1360 R90
WINDOW 0 0 56 VBottom 2
WINDOW 3 32 56 VTop 2
SYMATTR InstName R4
SYMATTR Value 10k
SYMBOL res 1088 -1152 R90
WINDOW 0 0 56 VBottom 2
WINDOW 3 32 56 VTop 2
SYMATTR InstName R5
SYMATTR Value 10k
SYMBOL res 592 -1136 R90
WINDOW 0 0 56 VBottom 2
WINDOW 3 32 56 VTop 2
SYMATTR InstName R3
SYMATTR Value 3.3k
SYMBOL res 592 -1360 R90
WINDOW 0 0 56 VBottom 2
WINDOW 3 32 56 VTop 2
SYMATTR InstName R20
SYMATTR Value 1k
SYMBOL cap 448 -1280 R0
SYMATTR InstName C2
SYMATTR Value 560n
SYMBOL ind -608 -736 R0
SYMATTR InstName L2
SYMATTR Value 7.4m
SYMATTR SpiceLine Rser=6
TEXT -312 -208 Left 2 !.include lm324.txt\n.include irf530.txt
TEXT -312 -64 Left 2 !.dc Vsig_x 2 3
