Version 4
SHEET 1 1432 960
WIRE -1536 -160 -1536 -192
WIRE -1360 -160 -1360 -192
WIRE -1184 -160 -1184 -192
WIRE -1536 32 -1536 -80
WIRE -1360 32 -1360 -80
WIRE -1184 32 -1184 -80
WIRE -864 48 -864 0
WIRE -704 48 -864 48
WIRE -864 64 -864 48
WIRE -704 80 -704 48
WIRE -864 192 -864 144
WIRE -704 192 -704 144
WIRE -704 192 -864 192
WIRE -528 192 -704 192
WIRE 688 192 672 192
WIRE 864 192 864 160
WIRE 864 192 784 192
WIRE 64 208 48 208
WIRE 288 208 144 208
WIRE -32 224 -32 208
WIRE 864 224 864 192
WIRE 1008 224 864 224
WIRE -704 240 -704 192
WIRE -864 256 -864 192
WIRE 736 256 736 240
WIRE -528 288 -528 192
WIRE 864 288 864 224
WIRE 1008 304 1008 224
WIRE -704 336 -704 320
WIRE -704 336 -832 336
WIRE -704 352 -704 336
WIRE 496 352 496 336
WIRE 112 368 112 352
WIRE 400 368 400 208
WIRE 464 368 400 368
WIRE -192 384 -320 384
WIRE 48 384 48 208
WIRE 48 384 -112 384
WIRE 80 384 48 384
WIRE 592 384 528 384
WIRE 736 384 736 256
WIRE 736 384 672 384
WIRE 288 400 288 208
WIRE 288 400 144 400
WIRE 464 400 288 400
WIRE -1536 416 -1536 288
WIRE -1392 416 -1392 288
WIRE -32 416 -32 304
WIRE 80 416 -32 416
WIRE 496 448 496 416
WIRE -864 464 -864 416
WIRE -704 464 -704 432
WIRE -704 464 -864 464
WIRE -528 464 -528 368
WIRE -528 464 -704 464
WIRE 112 464 112 432
WIRE 864 480 864 368
WIRE -32 496 -32 416
WIRE -864 528 -864 464
WIRE -704 544 -704 464
WIRE -1536 592 -1536 496
WIRE -1392 592 -1392 496
WIRE -32 608 -32 576
WIRE 864 608 864 544
WIRE 1008 608 1008 384
WIRE -864 624 -864 608
WIRE -704 624 -704 608
WIRE -704 624 -864 624
WIRE -864 656 -864 624
FLAG 112 464 0
FLAG -1392 592 0
FLAG -1536 288 +12V
FLAG 112 352 +12V
FLAG -1536 592 0
FLAG -1392 288 +5V
FLAG -32 208 +5V
FLAG -32 608 0
FLAG -1536 32 0
FLAG 400 208 +5V
FLAG 496 336 +12V
FLAG 496 448 0
FLAG 672 192 +12V
FLAG 864 608 0
FLAG 864 160 DR
FLAG -1536 -192 Vsig_z
FLAG -320 384 Vsig_z
FLAG -1360 32 0
FLAG -1184 32 0
FLAG -1360 -192 Vsig_x
FLAG -1184 -192 Vsig_y
FLAG 1008 608 0
FLAG -864 656 0
FLAG -864 0 +12V
SYMBOL OpAmps\\opamp2 112 336 R0
SYMATTR InstName U1
SYMATTR Value lm324
SYMBOL voltage -1392 400 R0
WINDOW 123 0 0 Left 0
WINDOW 39 0 0 Left 0
SYMATTR InstName +5V
SYMATTR Value 5
SYMBOL res -96 368 R90
WINDOW 0 0 56 VBottom 2
WINDOW 3 32 56 VTop 2
SYMATTR InstName R1
SYMATTR Value 10k
SYMBOL res -48 480 R0
SYMATTR InstName R2
SYMATTR Value 24k
SYMBOL voltage -1536 400 R0
WINDOW 123 0 0 Left 0
WINDOW 39 0 0 Left 0
SYMATTR InstName +12V
SYMATTR Value 12
SYMBOL res 160 192 R90
WINDOW 0 0 56 VBottom 2
WINDOW 3 32 56 VTop 2
SYMATTR InstName R3
SYMATTR Value 100k
SYMBOL res -48 208 R0
SYMATTR InstName R4
SYMATTR Value 20k
SYMBOL voltage -1536 -176 R0
WINDOW 123 0 0 Left 0
WINDOW 39 0 0 Left 0
SYMATTR InstName Vsig_z
SYMATTR Value 2.72
SYMBOL OpAmps\\opamp2 496 320 R0
SYMATTR InstName U2
SYMATTR Value lm324
SYMBOL res 848 272 R0
SYMATTR InstName R5
SYMATTR Value 5.1k
SYMBOL diode 848 480 R0
SYMATTR InstName D1
SYMBOL voltage -1360 -176 R0
WINDOW 123 0 0 Left 0
WINDOW 39 0 0 Left 0
SYMATTR InstName Vsig_x
SYMATTR Value 2.5
SYMBOL voltage -1184 -176 R0
WINDOW 123 0 0 Left 0
WINDOW 39 0 0 Left 0
SYMATTR InstName Vsig_y
SYMATTR Value 2.72
SYMBOL nmos 1184 -64 R270
SYMATTR InstName M2
SYMATTR Value irf530
SYMATTR Prefix X
SYMBOL pmos 1040 -64 R270
SYMATTR InstName M1
SYMBOL pnp 784 256 M270
SYMATTR InstName Q1
SYMATTR Value 2SB1708
SYMBOL res 688 368 R90
WINDOW 0 0 56 VBottom 2
WINDOW 3 32 56 VTop 2
SYMATTR InstName R6
SYMATTR Value 1.2k
SYMBOL res 992 288 R0
SYMATTR InstName R7
SYMATTR Value 12
SYMBOL AutoGenerated\\TL431 -864 384 R270
SYMATTR InstName U3
SYMBOL res -880 48 R0
SYMATTR InstName R8
SYMATTR Value 180
SYMBOL res -720 224 R0
SYMATTR InstName R9
SYMATTR Value 5.1k
SYMBOL res -720 336 R0
SYMATTR InstName R10
SYMATTR Value 5.1k
SYMBOL res -880 512 R0
SYMATTR InstName R11
SYMATTR Value 180
SYMBOL cap -720 544 R0
SYMATTR InstName C1
SYMATTR Value .1µ
SYMBOL cap -720 80 R0
SYMATTR InstName C2
SYMATTR Value .1µ
SYMBOL res -544 272 R0
SYMATTR InstName R12
SYMATTR Value 500
TEXT -1552 800 Left 2 !.include lm324.txt\n.include irf530.txt\n.include tl431.txt
TEXT -1552 944 Left 2 !;tran 1
TEXT 56 48 Left 2 ;Z Axis enable circuit\nOutput turns on at Vsig_z = 2.5V
TEXT 16 640 Left 2 ;Vout = -10(Vin - 2.72) + 2.72
